  Page 1                                    Thu Mar 14 14:51:55 2019

  ******************************************************************
  *                           E P A N E T                          *
  *                   Hydraulic and Water Quality                  *
  *                   Analysis for Pipe Networks                   *
  *                         Version 2.00.12                        *
  ******************************************************************
  
  Analysis begun Thu Mar 14 14:51:55 2019

  Analysis ended Thu Mar 14 14:51:55 2019
